
*** ChampSim Multicore Out-of-Order Simulator ***

Warmup Instructions: 1000000
Simulation Instructions: 10000000
Number of CPUs: 1
LLC sets: 2048
LLC ways: 16
Off-chip DRAM Size: 4096 MB Channels: 1 Width: 64-bit Data Rate: 3200 MT/s

CPU 0 runs /home/sankalp/Desktop/CS204-Project/Cache/ChampSimColdest/dpc3_traces/473.astar-153B.champsimtrace.xz
CPU 0 Bimodal branch predictor
Caught signal: 2
