
*** ChampSim Multicore Out-of-Order Simulator ***

Warmup Instructions: 1000000
Simulation Instructions: 10000000
Number of CPUs: 1
LLC sets: 2048
LLC ways: 16
Off-chip DRAM Size: 4096 MB Channels: 1 Width: 64-bit Data Rate: 3200 MT/s

CPU 0 runs /home/arav/Desktop/ChampSim/dpc3_traces/605.mcf_s-1536B.champsimtrace.xz
CPU 0 Bimodal branch predictor
Initialize SRRIP state

Warmup complete CPU 0 instructions: 1000001 cycles: 327988 (Simulation time: 0 hr 0 min 1 sec) 

Heartbeat CPU 0 instructions: 10000002 cycles: 58702298 heartbeat IPC: 0.170351 cumulative IPC: 0.154177 (Simulation time: 0 hr 0 min 20 sec) 
Finished CPU 0 instructions: 10000000 cycles: 65034610 cumulative IPC: 0.153764 (Simulation time: 0 hr 0 min 22 sec) 

ChampSim completed all CPUs

Region of Interest Statistics

CPU 0 cumulative IPC: 0.153764 instructions: 10000000 cycles: 65034610
L1D TOTAL     ACCESS:    1850409  HIT:    1478947  MISS:     371462
L1D LOAD      ACCESS:    1406968  HIT:    1063245  MISS:     343723
L1D RFO       ACCESS:     443441  HIT:     415702  MISS:      27739
L1D PREFETCH  ACCESS:          0  HIT:          0  MISS:          0
L1D WRITEBACK ACCESS:          0  HIT:          0  MISS:          0
L1D PREFETCH  REQUESTED:          0  ISSUED:          0  USEFUL:          0  USELESS:          0
L1D AVERAGE MISS LATENCY: 164.807 cycles
L1I TOTAL     ACCESS:    1975935  HIT:    1975935  MISS:          0
L1I LOAD      ACCESS:    1975935  HIT:    1975935  MISS:          0
L1I RFO       ACCESS:          0  HIT:          0  MISS:          0
L1I PREFETCH  ACCESS:          0  HIT:          0  MISS:          0
L1I WRITEBACK ACCESS:          0  HIT:          0  MISS:          0
L1I PREFETCH  REQUESTED:          0  ISSUED:          0  USEFUL:          0  USELESS:          0
L1I AVERAGE MISS LATENCY: -nan cycles
L2C TOTAL     ACCESS:     593167  HIT:     327330  MISS:     265837
L2C LOAD      ACCESS:     343723  HIT:      78587  MISS:     265136
L2C RFO       ACCESS:      27739  HIT:      27038  MISS:        701
L2C PREFETCH  ACCESS:          0  HIT:          0  MISS:          0
L2C WRITEBACK ACCESS:     221705  HIT:     221705  MISS:          0
L2C PREFETCH  REQUESTED:          0  ISSUED:          0  USEFUL:          0  USELESS:          0
L2C AVERAGE MISS LATENCY: 196.9 cycles
LLC TOTAL     ACCESS:     487889  HIT:     166651  MISS:     321238
LLC LOAD      ACCESS:     265136  HIT:       5092  MISS:     260044
LLC RFO       ACCESS:        701  HIT:        541  MISS:        160
LLC PREFETCH  ACCESS:          0  HIT:          0  MISS:          0
LLC WRITEBACK ACCESS:     222052  HIT:     161018  MISS:      61034
LLC PREFETCH  REQUESTED:          0  ISSUED:          0  USEFUL:          0  USELESS:          0
LLC AVERAGE MISS LATENCY: 137.702 cycles
Major fault: 0 Minor fault: 7236

DRAM Statistics
 CHANNEL 0
 RQ ROW_BUFFER_HIT:       9728  ROW_BUFFER_MISS:     250476
 DBUS_CONGESTED:      95662
 WQ ROW_BUFFER_HIT:       5158  ROW_BUFFER_MISS:     208960  FULL:          0

 AVG_CONGESTED_CYCLE: 6

CPU 0 Branch Prediction Accuracy: 99.9707% MPKI: 0.0457 Average ROB Occupancy at Mispredict: 177.862

Branch types
NOT_BRANCH: 8442252 84.4225%
BRANCH_DIRECT_JUMP: 227439 2.27439%
BRANCH_INDIRECT: 0 0%
BRANCH_CONDITIONAL: 886873 8.86873%
BRANCH_DIRECT_CALL: 221719 2.21719%
BRANCH_INDIRECT_CALL: 0 0%
BRANCH_RETURN: 221718 2.21718%
BRANCH_OTHER: 0 0%

0 712
1 701
2 710
3 667
4 657
5 669
6 674
7 678
8 682
9 660
10 669
11 672
12 691
13 668
14 687
15 675
16 678
17 728
18 720
19 722
20 727
21 743
22 702
23 698
24 687
25 679
26 709
27 718
28 701
29 689
30 684
31 681
32 680
33 691
34 671
35 696
36 697
37 676
38 663
39 669
40 706
41 664
42 667
43 699
44 690
45 683
46 681
47 692
48 708
49 678
50 688
51 680
52 682
53 739
54 742
55 730
56 739
57 708
58 697
59 685
60 657
61 675
62 709
63 729
64 672
65 703
66 680
67 698
68 696
69 713
70 707
71 675
72 685
73 746
74 730
75 740
76 733
77 690
78 721
79 714
80 692
81 673
82 697
83 766
84 714
85 671
86 693
87 651
88 693
89 657
90 684
91 717
92 667
93 684
94 687
95 678
96 728
97 728
98 717
99 716
100 711
101 797
102 760
103 722
104 769
105 718
106 729
107 691
108 700
109 745
110 757
111 757
112 754
113 714
114 743
115 732
116 707
117 705
118 706
119 751
120 715
121 715
122 690
123 708
124 692
125 711
126 699
127 763
128 678
129 700
130 706
131 694
132 681
133 692
134 718
135 661
136 669
137 658
138 680
139 681
140 652
141 672
142 648
143 682
144 686
145 647
146 666
147 646
148 656
149 656
150 708
151 701
152 685
153 679
154 671
155 688
156 691
157 743
158 756
159 707
160 703
161 710
162 681
163 666
164 654
165 697
166 724
167 710
168 702
169 673
170 684
171 667
172 667
173 666
174 666
175 652
176 667
177 686
178 701
179 694
180 683
181 672
182 674
183 703
184 745
185 738
186 728
187 697
188 703
189 721
190 664
191 663
192 699
193 681
194 660
195 682
196 695
197 713
198 721
199 706
200 768
201 692
202 731
203 709
204 718
205 755
206 713
207 720
208 750
209 683
210 698
211 722
212 688
213 734
214 724
215 697
216 700
217 677
218 697
219 688
220 704
221 678
222 682
223 717
224 694
225 667
226 691
227 667
228 681
229 676
230 651
231 683
232 689
233 706
234 727
235 692
236 733
237 703
238 691
239 709
240 719
241 735
242 754
243 697
244 716
245 698
246 676
247 680
248 682
249 709
250 720
251 707
252 688
253 686
254 694
255 690
256 743
257 720
258 727
259 707
260 705
261 707
262 695
263 698
264 679
265 687
266 689
267 654
268 687
269 717
270 679
271 666
272 662
273 681
274 708
275 644
276 678
277 652
278 667
279 682
280 658
281 750
282 729
283 683
284 677
285 678
286 685
287 708
288 700
289 749
290 701
291 688
292 686
293 669
294 667
295 693
296 696
297 711
298 676
299 676
300 668
301 667
302 676
303 665
304 647
305 676
306 652
307 689
308 649
309 669
310 685
311 673
312 664
313 642
314 645
315 720
316 741
317 734
318 713
319 681
320 656
321 713
322 680
323 665
324 689
325 650
326 657
327 687
328 664
329 663
330 659
331 664
332 687
333 635
334 661
335 653
336 703
337 732
338 675
339 732
340 698
341 723
342 710
343 678
344 704
345 708
346 696
347 687
348 696
349 670
350 703
351 684
352 707
353 696
354 740
355 692
356 713
357 702
358 691
359 667
360 685
361 689
362 662
363 704
364 697
365 717
366 711
367 712
368 747
369 699
370 706
371 724
372 725
373 739
374 719
375 708
376 751
377 709
378 723
379 719
380 733
381 717
382 694
383 717
384 665
385 691
386 690
387 739
388 723
389 726
390 720
391 720
392 709
393 719
394 702
395 688
396 740
397 720
398 725
399 716
400 688
401 722
402 702
403 683
404 698
405 688
406 688
407 715
408 664
409 653
410 688
411 732
412 698
413 656
414 714
415 694
416 669
417 685
418 678
419 723
420 732
421 724
422 691
423 712
424 724
425 698
426 722
427 717
428 710
429 734
430 702
431 677
432 676
433 731
434 699
435 699
436 666
437 732
438 709
439 701
440 689
441 671
442 657
443 664
444 680
445 653
446 695
447 699
448 720
449 696
450 682
451 700
452 674
453 735
454 683
455 669
456 648
457 671
458 671
459 645
460 656
461 630
462 653
463 701
464 673
465 670
466 664
467 664
468 650
469 723
470 680
471 714
472 709
473 686
474 675
475 675
476 685
477 695
478 687
479 700
480 702
481 705
482 672
483 672
484 687
485 698
486 701
487 696
488 677
489 694
490 671
491 642
492 673
493 638
494 660
495 658
496 670
497 651
498 662
499 684
500 659
501 654
502 663
503 699
504 676
505 726
506 691
507 704
508 753
509 687
510 673
511 649
512 653
513 717
514 709
515 675
516 684
517 687
518 674
519 713
520 688
521 750
522 742
523 706
524 715
525 719
526 789
527 757
528 754
529 761
530 734
531 711
532 791
533 693
534 751
535 760
536 711
537 765
538 705
539 747
540 742
541 703
542 741
543 714
544 679
545 778
546 684
547 775
548 721
549 713
550 753
551 707
552 751
553 783
554 734
555 844
556 753
557 748
558 759
559 710
560 795
561 767
562 737
563 788
564 742
565 746
566 734
567 728
568 790
569 735
570 734
571 745
572 690
573 713
574 727
575 671
576 666
577 685
578 689
579 721
580 705
581 701
582 710
583 678
584 720
585 682
586 694
587 678
588 679
589 686
590 657
591 680
592 686
593 683
594 633
595 660
596 659
597 677
598 670
599 664
600 650
601 650
602 692
603 653
604 687
605 658
606 682
607 693
608 705
609 715
610 705
611 688
612 675
613 673
614 650
615 656
616 667
617 703
618 707
619 666
620 676
621 672
622 650
623 661
624 659
625 688
626 657
627 654
628 657
629 657
630 659
631 644
632 654
633 686
634 697
635 682
636 709
637 698
638 736
639 702
640 713
641 656
642 668
643 657
644 659
645 659
646 651
647 647
648 644
649 696
650 651
651 686
652 681
653 671
654 713
655 703
656 726
657 725
658 733
659 682
660 715
661 678
662 714
663 700
664 720
665 725
666 721
667 701
668 686
669 685
670 664
671 666
672 651
673 674
674 671
675 669
676 665
677 660
678 660
679 628
680 674
681 673
682 653
683 643
684 665
685 688
686 663
687 692
688 690
689 676
690 659
691 719
692 704
693 721
694 702
695 671
696 680
697 644
698 688
699 658
700 682
701 717
702 705
703 699
704 675
705 719
706 697
707 672
708 715
709 686
710 682
711 739
712 690
713 738
714 693
715 735
716 684
717 710
718 686
719 682
720 749
721 716
722 701
723 706
724 713
725 665
726 709
727 668
728 642
729 683
730 692
731 717
732 702
733 728
734 686
735 712
736 702
737 705
738 726
739 742
740 753
741 745
742 736
743 702
744 750
745 705
746 727
747 768
748 728
749 743
750 741
751 744
752 713
753 719
754 715
755 699
756 698
757 685
758 681
759 682
760 702
761 669
762 688
763 681
764 651
765 674
766 690
767 694
768 676
769 660
770 622
771 667
772 629
773 607
774 632
775 627
776 631
777 639
778 604
779 572
780 615
781 621
782 613
783 575
784 623
785 650
786 634
787 636
788 627
789 666
790 652
791 630
792 648
793 677
794 665
795 664
796 671
797 641
798 688
799 621
800 636
801 601
802 630
803 658
804 627
805 641
806 624
807 650
808 602
809 589
810 583
811 599
812 591
813 638
814 617
815 631
816 628
817 641
818 660
819 629
820 649
821 682
822 652
823 671
824 689
825 692
826 694
827 655
828 659
829 664
830 686
831 694
832 709
833 687
834 673
835 703
836 716
837 733
838 735
839 737
840 738
841 765
842 724
843 746
844 752
845 776
846 784
847 759
848 805
849 774
850 770
851 750
852 744
853 780
854 756
855 760
856 755
857 756
858 737
859 728
860 695
861 719
862 725
863 727
864 726
865 718
866 739
867 715
868 693
869 695
870 699
871 754
872 752
873 742
874 766
875 787
876 749
877 762
878 724
879 760
880 774
881 753
882 765
883 736
884 771
885 737
886 731
887 702
888 744
889 739
890 736
891 718
892 735
893 729
894 690
895 702
896 670
897 687
898 666
899 686
900 639
901 652
902 638
903 656
904 634
905 639
906 657
907 641
908 630
909 635
910 633
911 610
912 641
913 597
914 608
915 641
916 633
917 637
918 631
919 638
920 655
921 645
922 679
923 698
924 705
925 676
926 686
927 703
928 686
929 682
930 664
931 690
932 725
933 740
934 671
935 687
936 681
937 680
938 685
939 637
940 663
941 679
942 655
943 658
944 647
945 641
946 675
947 632
948 632
949 624
950 639
951 651
952 628
953 624
954 680
955 673
956 675
957 650
958 662
959 683
960 693
961 673
962 657
963 656
964 674
965 650
966 655
967 646
968 644
969 633
970 682
971 668
972 666
973 699
974 697
975 667
976 713
977 739
978 700
979 699
980 674
981 700
982 661
983 678
984 666
985 667
986 711
987 653
988 668
989 647
990 647
991 642
992 643
993 619
994 660
995 650
996 607
997 622
998 613
999 609
1000 641
1001 642
1002 674
1003 672
1004 683
1005 682
1006 720
1007 692
1008 693
1009 697
1010 693
1011 678
1012 747
1013 739
1014 722
1015 732
1016 724
1017 707
1018 722
1019 696
1020 695
1021 719
1022 710
1023 724
1024 759
1025 733
1026 724
1027 731
1028 732
1029 714
1030 726
1031 747
1032 790
1033 746
1034 774
1035 751
1036 742
1037 727
1038 699
1039 723
1040 681
1041 708
1042 730
1043 699
1044 712
1045 729
1046 675
1047 674
1048 690
1049 696
1050 730
1051 684
1052 721
1053 713
1054 729
1055 736
1056 714
1057 725
1058 712
1059 735
1060 767
1061 764
1062 732
1063 764
1064 720
1065 716
1066 708
1067 714
1068 759
1069 725
1070 754
1071 731
1072 715
1073 692
1074 652
1075 660
1076 687
1077 689
1078 691
1079 656
1080 675
1081 720
1082 668
1083 675
1084 687
1085 666
1086 723
1087 696
1088 680
1089 689
1090 700
1091 665
1092 674
1093 686
1094 675
1095 667
1096 662
1097 644
1098 660
1099 646
1100 636
1101 665
1102 665
1103 665
1104 670
1105 661
1106 656
1107 690
1108 699
1109 697
1110 696
1111 724
1112 686
1113 668
1114 685
1115 707
1116 722
1117 725
1118 674
1119 707
1120 699
1121 684
1122 667
1123 666
1124 707
1125 675
1126 677
1127 653
1128 652
1129 687
1130 666
1131 633
1132 667
1133 665
1134 642
1135 665
1136 689
1137 671
1138 687
1139 684
1140 661
1141 639
1142 749
1143 728
1144 756
1145 740
1146 706
1147 712
1148 681
1149 661
1150 652
1151 679
1152 681
1153 682
1154 718
1155 735
1156 731
1157 715
1158 718
1159 716
1160 736
1161 717
1162 744
1163 761
1164 773
1165 755
1166 736
1167 735
1168 686
1169 732
1170 711
1171 755
1172 770
1173 756
1174 741
1175 709
1176 718
1177 696
1178 723
1179 677
1180 713
1181 696
1182 686
1183 688
1184 693
1185 700
1186 696
1187 714
1188 692
1189 700
1190 737
1191 738
1192 738
1193 732
1194 748
1195 702
1196 718
1197 689
1198 721
1199 759
1200 753
1201 737
1202 707
1203 722
1204 696
1205 693
1206 674
1207 700
1208 728
1209 716
1210 733
1211 699
1212 701
1213 705
1214 719
1215 669
1216 691
1217 704
1218 685
1219 678
1220 707
1221 697
1222 733
1223 640
1224 668
1225 685
1226 639
1227 671
1228 637
1229 624
1230 654
1231 637
1232 675
1233 682
1234 638
1235 634
1236 648
1237 613
1238 667
1239 642
1240 679
1241 653
1242 657
1243 676
1244 659
1245 699
1246 675
1247 682
1248 671
1249 657
1250 669
1251 688
1252 642
1253 671
1254 719
1255 649
1256 691
1257 661
1258 675
1259 675
1260 682
1261 692
1262 635
1263 668
1264 655
1265 657
1266 677
1267 642
1268 691
1269 688
1270 645
1271 645
1272 663
1273 626
1274 700
1275 666
1276 706
1277 689
1278 680
1279 711
1280 695
1281 661
1282 681
1283 651
1284 652
1285 638
1286 683
1287 689
1288 679
1289 671
1290 668
1291 699
1292 673
1293 691
1294 688
1295 708
1296 712
1297 669
1298 732
1299 739
1300 723
1301 736
1302 703
1303 714
1304 755
1305 710
1306 678
1307 741
1308 725
1309 703
1310 665
1311 692
1312 690
1313 689
1314 673
1315 678
1316 735
1317 722
1318 680
1319 692
1320 678
1321 700
1322 748
1323 720
1324 717
1325 745
1326 714
1327 744
1328 725
1329 734
1330 750
1331 738
1332 744
1333 702
1334 754
1335 722
1336 717
1337 734
1338 718
1339 727
1340 769
1341 717
1342 740
1343 743
1344 684
1345 636
1346 649
1347 675
1348 697
1349 671
1350 653
1351 664
1352 651
1353 649
1354 621
1355 640
1356 676
1357 671
1358 625
1359 638
1360 642
1361 641
1362 637
1363 609
1364 625
1365 622
1366 627
1367 625
1368 610
1369 625
1370 638
1371 640
1372 630
1373 624
1374 683
1375 657
1376 646
1377 645
1378 668
1379 666
1380 673
1381 658
1382 674
1383 719
1384 699
1385 676
1386 643
1387 687
1388 675
1389 683
1390 639
1391 653
1392 671
1393 687
1394 630
1395 609
1396 663
1397 636
1398 665
1399 632
1400 648
1401 663
1402 669
1403 623
1404 617
1405 659
1406 684
1407 693
1408 694
1409 640
1410 631
1411 646
1412 649
1413 651
1414 629
1415 652
1416 621
1417 661
1418 656
1419 632
1420 647
1421 676
1422 651
1423 696
1424 664
1425 664
1426 698
1427 697
1428 694
1429 696
1430 729
1431 734
1432 703
1433 701
1434 712
1435 693
1436 691
1437 657
1438 738
1439 705
1440 687
1441 680
1442 697
1443 677
1444 669
1445 670
1446 674
1447 685
1448 640
1449 645
1450 640
1451 651
1452 642
1453 662
1454 693
1455 647
1456 693
1457 687
1458 686
1459 676
1460 681
1461 652
1462 717
1463 681
1464 723
1465 691
1466 711
1467 721
1468 687
1469 715
1470 661
1471 714
1472 642
1473 710
1474 671
1475 710
1476 687
1477 707
1478 732
1479 727
1480 709
1481 706
1482 713
1483 765
1484 737
1485 704
1486 771
1487 700
1488 746
1489 737
1490 662
1491 719
1492 728
1493 725
1494 729
1495 706
1496 746
1497 736
1498 657
1499 696
1500 702
1501 714
1502 706
1503 706
1504 741
1505 709
1506 721
1507 738
1508 676
1509 783
1510 784
1511 733
1512 763
1513 761
1514 778
1515 773
1516 717
1517 749
1518 729
1519 735
1520 789
1521 711
1522 759
1523 761
1524 717
1525 753
1526 677
1527 761
1528 751
1529 715
1530 707
1531 678
1532 698
1533 707
1534 660
1535 670
1536 655
1537 641
1538 663
1539 652
1540 652
1541 646
1542 670
1543 640
1544 652
1545 626
1546 636
1547 637
1548 634
1549 630
1550 636
1551 632
1552 597
1553 594
1554 596
1555 629
1556 608
1557 629
1558 585
1559 608
1560 650
1561 650
1562 668
1563 613
1564 611
1565 610
1566 615
1567 638
1568 637
1569 640
1570 678
1571 627
1572 631
1573 607
1574 601
1575 625
1576 619
1577 617
1578 603
1579 607
1580 628
1581 599
1582 597
1583 604
1584 604
1585 626
1586 647
1587 618
1588 690
1589 665
1590 632
1591 676
1592 612
1593 697
1594 654
1595 708
1596 674
1597 698
1598 707
1599 692
1600 683
1601 670
1602 694
1603 677
1604 705
1605 702
1606 688
1607 675
1608 702
1609 704
1610 712
1611 709
1612 706
1613 725
1614 758
1615 792
1616 755
1617 755
1618 773
1619 715
1620 721
1621 701
1622 722
1623 763
1624 767
1625 735
1626 742
1627 745
1628 732
1629 763
1630 689
1631 711
1632 708
1633 738
1634 662
1635 694
1636 693
1637 679
1638 685
1639 722
1640 708
1641 706
1642 709
1643 713
1644 697
1645 695
1646 704
1647 691
1648 670
1649 693
1650 728
1651 736
1652 755
1653 730
1654 713
1655 707
1656 686
1657 667
1658 670
1659 691
1660 735
1661 693
1662 692
1663 679
1664 666
1665 686
1666 660
1667 662
1668 670
1669 684
1670 717
1671 717
1672 698
1673 708
1674 696
1675 684
1676 674
1677 668
1678 667
1679 677
1680 683
1681 662
1682 652
1683 668
1684 655
1685 643
1686 644
1687 639
1688 658
1689 676
1690 646
1691 678
1692 699
1693 703
1694 679
1695 683
1696 705
1697 742
1698 748
1699 735
1700 736
1701 732
1702 735
1703 698
1704 691
1705 711
1706 750
1707 736
1708 724
1709 708
1710 705
1711 711
1712 675
1713 676
1714 680
1715 690
1716 679
1717 690
1718 672
1719 674
1720 694
1721 664
1722 652
1723 665
1724 682
1725 696
1726 702
1727 701
1728 670
1729 675
1730 691
1731 653
1732 648
1733 627
1734 623
1735 642
1736 633
1737 624
1738 642
1739 634
1740 680
1741 658
1742 616
1743 636
1744 630
1745 665
1746 672
1747 660
1748 684
1749 686
1750 676
1751 679
1752 649
1753 757
1754 696
1755 676
1756 699
1757 660
1758 675
1759 684
1760 651
1761 644
1762 678
1763 680
1764 697
1765 639
1766 675
1767 675
1768 654
1769 642
1770 624
1771 647
1772 644
1773 668
1774 685
1775 666
1776 671
1777 686
1778 628
1779 716
1780 691
1781 706
1782 739
1783 711
1784 711
1785 698
1786 684
1787 684
1788 667
1789 679
1790 715
1791 686
1792 661
1793 667
1794 703
1795 691
1796 691
1797 720
1798 732
1799 752
1800 727
1801 736
1802 707
1803 728
1804 789
1805 693
1806 704
1807 712
1808 709
1809 684
1810 709
1811 713
1812 741
1813 716
1814 708
1815 660
1816 668
1817 720
1818 649
1819 687
1820 685
1821 713
1822 678
1823 687
1824 674
1825 661
1826 668
1827 663
1828 685
1829 695
1830 727
1831 706
1832 725
1833 736
1834 701
1835 724
1836 735
1837 726
1838 757
1839 719
1840 696
1841 730
1842 707
1843 693
1844 692
1845 690
1846 718
1847 714
1848 703
1849 682
1850 718
1851 693
1852 720
1853 666
1854 706
1855 683
1856 658
1857 672
1858 661
1859 667
1860 651
1861 627
1862 649
1863 642
1864 624
1865 650
1866 632
1867 622
1868 613
1869 625
1870 643
1871 629
1872 649
1873 618
1874 612
1875 623
1876 617
1877 635
1878 667
1879 679
1880 648
1881 683
1882 672
1883 688
1884 661
1885 682
1886 695
1887 701
1888 684
1889 694
1890 677
1891 673
1892 693
1893 643
1894 688
1895 674
1896 678
1897 655
1898 671
1899 686
1900 613
1901 631
1902 595
1903 613
1904 627
1905 653
1906 644
1907 638
1908 672
1909 648
1910 660
1911 653
1912 652
1913 677
1914 692
1915 702
1916 656
1917 700
1918 670
1919 690
1920 707
1921 665
1922 666
1923 710
1924 648
1925 696
1926 695
1927 660
1928 689
1929 658
1930 684
1931 698
1932 661
1933 698
1934 708
1935 681
1936 706
1937 686
1938 724
1939 709
1940 665
1941 701
1942 668
1943 751
1944 707
1945 658
1946 676
1947 676
1948 649
1949 679
1950 638
1951 695
1952 750
1953 658
1954 694
1955 637
1956 690
1957 703
1958 648
1959 717
1960 738
1961 704
1962 720
1963 688
1964 734
1965 737
1966 711
1967 755
1968 702
1969 741
1970 725
1971 694
1972 775
1973 722
1974 702
1975 713
1976 693
1977 722
1978 734
1979 703
1980 732
1981 681
1982 692
1983 717
1984 680
1985 714
1986 674
1987 683
1988 678
1989 669
1990 664
1991 701
1992 675
1993 662
1994 673
1995 677
1996 663
1997 681
1998 656
1999 652
2000 651
2001 627
2002 628
2003 652
2004 627
2005 647
2006 626
2007 645
2008 633
2009 642
2010 636
2011 629
2012 673
2013 648
2014 677
2015 664
2016 674
2017 714
2018 677
2019 678
2020 692
2021 680
2022 694
2023 671
2024 658
2025 672
2026 664
2027 654
2028 650
2029 644
2030 668
2031 639
2032 657
2033 646
2034 633
2035 651
2036 662
2037 644
2038 640
2039 648
2040 643
2041 639
2042 635
2043 677
2044 691
2045 695
2046 696
2047 672
321238
