
*** ChampSim Multicore Out-of-Order Simulator ***

Warmup Instructions: 1000000
Simulation Instructions: 10000000
Number of CPUs: 1
LLC sets: 2048
LLC ways: 16
Off-chip DRAM Size: 4096 MB Channels: 1 Width: 64-bit Data Rate: 3200 MT/s

CPU 0 runs /home/arav/Desktop/ChampSim/dpc3_traces/605.mcf_s-1536B.champsimtrace.xz
CPU 0 Bimodal branch predictor

Warmup complete CPU 0 instructions: 1000001 cycles: 327988 (Simulation time: 0 hr 0 min 1 sec) 

Heartbeat CPU 0 instructions: 10000002 cycles: 58723939 heartbeat IPC: 0.170288 cumulative IPC: 0.15412 (Simulation time: 0 hr 0 min 20 sec) 
Finished CPU 0 instructions: 10000000 cycles: 65029507 cumulative IPC: 0.153776 (Simulation time: 0 hr 0 min 22 sec) 

ChampSim completed all CPUs

Region of Interest Statistics

CPU 0 cumulative IPC: 0.153776 instructions: 10000000 cycles: 65029507
L1D TOTAL     ACCESS:    1850589  HIT:    1479127  MISS:     371462
L1D LOAD      ACCESS:    1407148  HIT:    1063425  MISS:     343723
L1D RFO       ACCESS:     443441  HIT:     415702  MISS:      27739
L1D PREFETCH  ACCESS:          0  HIT:          0  MISS:          0
L1D WRITEBACK ACCESS:          0  HIT:          0  MISS:          0
L1D PREFETCH  REQUESTED:          0  ISSUED:          0  USEFUL:          0  USELESS:          0
L1D AVERAGE MISS LATENCY: 164.35 cycles
L1I TOTAL     ACCESS:    1976040  HIT:    1976040  MISS:          0
L1I LOAD      ACCESS:    1976040  HIT:    1976040  MISS:          0
L1I RFO       ACCESS:          0  HIT:          0  MISS:          0
L1I PREFETCH  ACCESS:          0  HIT:          0  MISS:          0
L1I WRITEBACK ACCESS:          0  HIT:          0  MISS:          0
L1I PREFETCH  REQUESTED:          0  ISSUED:          0  USEFUL:          0  USELESS:          0
L1I AVERAGE MISS LATENCY: -nan cycles
L2C TOTAL     ACCESS:     593167  HIT:     327330  MISS:     265837
L2C LOAD      ACCESS:     343723  HIT:      78587  MISS:     265136
L2C RFO       ACCESS:      27739  HIT:      27038  MISS:        701
L2C PREFETCH  ACCESS:          0  HIT:          0  MISS:          0
L2C WRITEBACK ACCESS:     221705  HIT:     221705  MISS:          0
L2C PREFETCH  REQUESTED:          0  ISSUED:          0  USEFUL:          0  USELESS:          0
L2C AVERAGE MISS LATENCY: 196.251 cycles
LLC TOTAL     ACCESS:     487889  HIT:     231142  MISS:     256747
LLC LOAD      ACCESS:     265136  HIT:       8393  MISS:     256743
LLC RFO       ACCESS:        701  HIT:        697  MISS:          4
LLC PREFETCH  ACCESS:          0  HIT:          0  MISS:          0
LLC WRITEBACK ACCESS:     222052  HIT:     222052  MISS:          0
LLC PREFETCH  REQUESTED:          0  ISSUED:          0  USEFUL:          0  USELESS:          0
LLC AVERAGE MISS LATENCY: 171.582 cycles
Major fault: 0 Minor fault: 7236

DRAM Statistics
 CHANNEL 0
 RQ ROW_BUFFER_HIT:       5561  ROW_BUFFER_MISS:     251186
 DBUS_CONGESTED:      97627
 WQ ROW_BUFFER_HIT:        994  ROW_BUFFER_MISS:     215042  FULL:          0

 AVG_CONGESTED_CYCLE: 6

CPU 0 Branch Prediction Accuracy: 99.9707% MPKI: 0.0457 Average ROB Occupancy at Mispredict: 177.858

Branch types
NOT_BRANCH: 8442252 84.4225%
BRANCH_DIRECT_JUMP: 227439 2.27439%
BRANCH_INDIRECT: 0 0%
BRANCH_CONDITIONAL: 886873 8.86873%
BRANCH_DIRECT_CALL: 221719 2.21719%
BRANCH_INDIRECT_CALL: 0 0%
BRANCH_RETURN: 221718 2.21718%
BRANCH_OTHER: 0 0%

129
129
131
124
126
129
126
128
126
125
127
125
127
123
121
122
122
124
120
120
122
126
122
125
126
126
125
127
129
130
129
129
129
131
127
125
128
129
128
126
129
124
125
128
123
122
122
123
120
121
120
123
122
124
121
122
125
124
125
126
126
125
127
127
123
127
123
126
121
122
126
120
123
131
122
131
129
127
131
130
131
127
131
138
137
131
135
126
132
123
126
132
127
128
126
126
128
127
128
127
123
131
124
125
134
130
132
128
133
133
133
140
139
131
141
133
133
134
133
136
135
135
137
133
131
137
129
134
124
124
126
130
127
130
128
124
125
124
128
129
127
127
124
125
124
119
122
120
120
118
124
124
117
119
120
123
118
122
129
123
127
127
125
125
127
131
135
134
130
126
125
126
122
124
127
124
125
125
125
119
118
119
119
120
123
119
125
127
123
128
125
127
131
129
127
128
124
131
129
125
136
125
128
125
122
129
127
127
134
127
134
133
129
135
132
131
131
127
130
128
131
130
129
135
130
126
130
126
128
127
123
125
122
123
126
120
128
125
121
123
122
126
130
125
132
129
126
131
130
134
131
128
129
127
127
130
130
130
129
126
128
130
121
126
124
125
132
125
135
132
129
125
122
122
128
121
130
128
127
125
120
128
126
120
120
118
116
121
119
130
125
122
127
122
124
129
131
132
125
124
124
125
124
126
127
131
126
129
122
123
122
118
121
122
122
125
125
126
122
117
125
130
128
123
131
126
129
129
129
128
124
126
127
121
122
123
122
130
121
128
124
121
122
121
127
126
125
126
128
127
131
129
135
131
135
126
127
127
128
125
130
133
125
129
125
130
128
124
127
122
123
128
123
129
127
127
136
128
135
136
137
133
130
131
123
125
123
127
126
123
125
130
122
129
127
126
131
130
137
132
130
131
130
125
131
130
132
137
131
128
131
135
130
125
128
128
123
126
124
125
128
127
124
124
122
120
127
133
127
131
126
129
125
134
132
131
131
135
130
126
128
124
124
127
129
125
127
122
130
130
131
130
127
131
127
126
127
126
126
123
124
124
125
129
127
123
120
121
118
123
117
116
116
118
119
120
121
124
121
123
128
127
126
126
130
127
126
124
127
132
126
125
127
124
123
121
122
122
121
121
117
116
116
119
117
121
116
115
121
118
117
121
122
128
126
124
124
124
122
128
121
130
128
124
126
122
129
129
127
134
134
128
139
129
136
140
134
140
132
141
137
128
134
135
130
142
131
142
133
127
135
126
129
131
124
135
129
130
136
130
138
135
131
141
135
139
140
133
146
135
131
140
133
138
140
131
127
128
131
130
127
129
129
125
129
126
128
124
125
126
129
133
132
130
129
132
128
126
123
124
123
120
122
118
121
120
122
120
120
119
120
118
123
122
121
122
121
128
127
124
126
127
122
123
120
123
124
124
126
122
123
121
120
122
121
116
118
115
122
120
128
127
125
128
126
124
125
125
125
128
122
122
127
120
128
118
122
125
126
122
128
127
131
127
127
132
132
128
129
126
126
127
126
130
130
131
127
130
124
121
126
125
121
119
121
124
119
120
125
121
116
118
116
121
119
118
121
119
123
125
124
132
128
128
125
128
123
121
123
123
121
125
121
128
122
132
126
130
130
131
136
133
129
130
130
126
127
125
129
130
133
131
128
130
124
124
124
122
121
125
127
126
127
128
132
127
132
136
130
132
134
139
133
132
135
136
137
135
132
131
133
131
130
129
126
126
127
123
123
131
123
123
121
120
127
120
123
125
123
116
118
116
116
114
118
119
113
120
114
110
117
114
116
112
113
112
119
113
120
114
118
118
119
126
118
121
116
117
115
111
112
115
116
120
114
114
112
113
114
111
111
113
108
113
116
114
117
116
119
119
121
125
124
124
122
125
123
123
124
122
125
127
125
130
129
134
134
130
135
138
139
141
139
143
141
139
141
142
146
145
141
143
139
139
136
133
136
135
131
133
129
131
128
127
133
131
127
132
130
135
136
133
139
134
138
141
139
140
140
135
136
132
134
133
132
135
125
123
122
125
123
123
125
126
123
123
124
123
120
123
119
117
122
119
118
119
119
118
114
114
116
113
116
113
112
113
114
122
117
117
117
118
123
127
122
126
125
122
125
121
129
131
127
132
127
124
124
118
121
120
115
117
114
113
116
114
116
114
113
111
129
124
127
128
126
119
126
125
120
123
122
120
117
121
122
120
122
125
119
118
120
127
122
125
123
124
129
129
130
129
128
127
122
120
122
119
121
121
119
117
118
116
121
115
115
116
114
112
115
113
116
116
121
119
120
125
130
131
130
129
128
126
128
137
132
127
127
128
129
129
126
132
135
129
136
140
137
137
132
132
131
132
140
136
138
137
131
136
128
130
133
126
133
131
127
131
127
129
127
123
125
127
125
128
128
133
128
131
135
129
140
140
135
134
129
129
133
126
127
126
129
139
127
128
127
122
128
119
125
126
127
125
125
126
126
125
125
127
129
126
126
129
123
122
121
121
120
121
116
119
119
122
120
121
125
125
125
129
126
127
124
125
127
128
129
129
129
128
124
128
125
121
123
121
119
122
123
118
116
117
118
117
129
119
119
123
121
120
121
121
125
124
126
128
131
132
131
130
127
130
129
128
126
128
132
130
134
134
130
135
133
138
143
140
138
134
134
132
134
130
135
136
134
133
133
133
130
131
130
127
129
125
126
127
129
127
129
129
127
132
135
131
132
132
130
130
131
134
134
133
136
132
131
132
134
126
125
125
121
126
124
128
130
124
127
125
125
127
127
121
127
122
125
124
116
119
119
118
121
115
118
117
116
120
118
115
116
116
118
118
126
125
119
128
132
124
129
123
128
126
124
124
120
127
128
123
124
121
120
125
118
122
121
113
117
114
123
122
119
123
125
121
122
121
121
123
125
121
126
121
123
126
118
120
117
121
125
122
128
129
122
130
128
131
133
127
128
130
134
130
131
134
137
128
127
129
133
129
124
131
125
128
128
124
128
133
124
128
124
129
130
127
128
130
138
133
130
137
139
134
140
131
135
135
124
120
122
118
125
124
122
121
118
121
121
118
124
126
122
124
121
122
120
117
120
121
124
124
120
120
120
115
116
115
117
113
110
114
114
116
120
119
118
116
119
122
119
122
121
122
123
121
124
129
124
122
125
119
124
119
118
118
119
117
115
116
116
116
128
121
125
123
125
123
122
124
121
121
120
121
119
122
117
124
116
117
121
120
122
115
122
122
123
124
129
125
127
125
132
132
129
131
130
128
127
125
127
130
127
128
126
127
125
121
124
119
126
121
115
113
116
114
124
116
125
119
119
119
120
123
122
125
121
130
120
130
128
121
129
123
125
131
122
131
129
123
133
124
133
137
125
133
135
135
141
133
139
136
129
139
128
132
132
129
132
127
127
135
120
134
130
124
132
121
131
135
127
136
131
134
143
131
142
142
136
141
133
142
140
129
136
133
138
139
127
135
121
124
131
124
121
119
124
122
126
118
117
115
116
120
125
121
118
112
117
116
115
112
108
110
113
111
114
108
110
115
107
112
110
113
121
112
114
111
114
111
112
119
117
113
118
115
117
114
108
114
115
112
121
113
113
115
107
120
108
109
110
113
114
120
126
122
124
127
130
129
125
124
127
125
123
125
127
126
124
128
128
129
132
128
133
133
131
137
141
139
138
141
135
137
131
133
133
139
132
134
131
131
132
135
130
128
125
126
123
124
124
128
124
125
124
123
134
130
125
125
125
125
126
127
133
131
129
128
123
122
122
122
123
122
125
123
124
124
125
124
125
127
127
128
129
129
126
127
124
123
122
121
123
125
121
120
121
119
120
121
120
119
120
122
122
123
128
128
130
131
135
135
134
132
130
131
130
130
128
129
130
132
129
128
128
127
124
123
122
122
120
121
126
124
133
123
125
126
122
125
127
124
121
119
127
123
118
120
113
116
118
115
118
118
117
122
113
128
121
118
123
119
122
123
121
125
130
128
130
121
130
123
120
119
122
121
120
119
118
114
115
118
115
120
118
113
117
119
120
123
120
125
124
127
131
125
122
121
126
125
121
125
126
123
126
125
125
126
140
125
131
132
133
133
133
134
139
132
130
125
127
139
131
133
131
133
125
128
124
125
121
120
120
120
125
122
127
128
125
123
127
126
136
126
129
131
128
128
131
135
134
133
129
128
130
130
132
124
133
126
122
127
124
123
123
120
125
124
121
126
122
119
115
115
119
117
118
118
114
117
114
110
112
116
114
115
109
116
115
118
120
121
124
126
121
125
134
126
130
124
125
122
122
129
122
123
120
117
116
120
115
116
118
120
118
118
115
115
117
121
116
121
117
122
131
125
122
132
120
125
130
122
128
118
126
127
119
130
128
121
125
120
128
128
122
133
124
132
134
122
131
131
124
129
123
134
135
124
127
119
128
129
119
127
126
120
128
117
125
123
121
130
125
131
126
123
139
131
129
138
129
137
135
127
134
124
132
136
120
122
120
123
123
122
122
127
124
124
127
127
124
126
123
123
119
120
123
123
122
122
117
118
117
118
116
116
116
113
119
115
118
127
119
119
120
117
127
123
121
124
123
123
123
127
125
123
126
124
121
119
120
119
120
119
120
118
117
119
121
121
119
117
256747
